trattoria_core-0.2.1.dist-info/METADATA,sha256=7LKUgdJqpxjXPwH7C3IvGgFAzXl5B_bdaz7MXmOsnBM,448
trattoria_core-0.2.1.dist-info/WHEEL,sha256=MT3DwHY5NKmzjNPpPbf0eXsp-b7ApWmdqZ12k72Nobo,105
trattoria_core.cpython-36m-darwin.so,sha256=T5TnL0hg4igodAHcE8w4ml0m4yNLcjDoue_nCqEZtRA,453064
trattoria_core-0.2.1.dist-info/RECORD,,
