trattoria_core-0.2.0.dist-info/METADATA,sha256=CUpUlIRIuMI2OlXyDeGcoSa7-rssT5UPkaEVbjl3Dig,448
trattoria_core-0.2.0.dist-info/WHEEL,sha256=MT3DwHY5NKmzjNPpPbf0eXsp-b7ApWmdqZ12k72Nobo,105
trattoria_core.cpython-36m-darwin.so,sha256=zoVvJwN8x8sdJy7VB79FOot2FZuP_MAHhMFzltYT8LU,453064
trattoria_core-0.2.0.dist-info/RECORD,,
